Circuit: * C:\Users\akita\Documents\Dropbox\1Project\SolenoidStrokeControl\sim\SolDrive.asc

Direct Newton iteration for .op point succeeded.
.step l=0.01
.step l=0.012
.step l=0.015

Date: Fri Apr  5 13:44:06 2024
Total elapsed time: 0.618 seconds.

tnom = 27
temp = 27
method = modified trap
totiter = 6673
traniter = 6668
tranpoints = 2852
accept = 2346
rejected = 506
matrix size = 11
fillins = 0
solver = Normal
Avg thread counts: 1.8/2.8/2.8/1.8
Matrix Compiler1: off  [0.2]/0.3/0.2
Matrix Compiler2: off  [0.1]/0.3/0.2

